12

N         -9.30347       -1.29349        1.80765
C         -8.62259       -0.05711        2.07680
C          0.48023        0.63651       -0.35681
N          1.45306       -0.37158       -0.27781
H         -9.78362       -1.25438        0.88260
H         -8.65656       -2.12363        1.83345
H         -8.27469       -0.03069        3.13012
H         -9.33861        0.76394        1.85698
H         -7.90034        0.10714        0.09581
H          0.91683        1.63453       -0.19265
H          1.46801       -1.10578       -0.97079
H          2.08981       -0.39293        0.50159
